<configuration xmlns:xsi="http://www.w3.org/2001/XMLSchema-instance" xsi:noNamespaceSchemaLocation="http://sumo.dlr.de/xsd/sumoConfiguration.xsd">
    <input>
        <net-file value="grid.net.xml"/>
        <route-files value="grid_routes.rou.xml"/>
    </input>
    <time>
        <begin value="0"/>
        <end value="7200"/>
    </time>
    <processing>
        <device.taxi.dispatch-algorithm value="traci"/>
    </processing>
</configuration>