<routes>
        <vType id="taxi" vClass="taxi" personCapacity="4">
            <param key="has.taxi.device" value="true"/>
            <param key="device.taxi.pickUpDuration" value="15"/>
            <param key="device.taxi.dropOffDuration" value="15"/>
        </vType>
        <trip id="taxi_0" depart="0.00" type="taxi" from="A0B0" to="D0D1"/>
        <trip id="taxi_1" depart="0.00" type="taxi" from="C2B2" to="A0A1"/>
        <trip id="taxi_2" depart="0.00" type="taxi" from="A2B2" to="D3C3"/>
    </routes>